     200
Cell parameters = 13.17 13.17 13.17
 Si         7.9327830055        5.6943000990        9.2685546391
 Si         7.2365461491        6.4380249418        4.7101974708
 Si         7.0534760501        0.7290157592        2.2406246426
 Si         7.8697704981        9.1505144786        5.1267934335
 Si         4.2404973307       10.0448620443        4.2070506079
 Si         7.9746577411       11.9707858300        6.4430235058
 Si         2.6874178634        5.0777141836        5.5100041945
 Si         8.4922219271       12.2525103483        1.4109306640
 Si         5.0086470916        8.2681925547        5.7701872880
 Si         9.7943850589        8.7677719839        2.7067421117
 Si         1.2284608131        6.4696285963        0.8030040478
 Si         5.1282194285        5.1202521237        8.5429806638
 Si         5.3532896633        8.0323665359        8.8872820929
 Si         9.8173557362        6.4442200997        4.5091386583
 Si        11.4159140788       17.9435022824       -2.2689850853
 Si         8.4720864733       14.7995650876        4.8774709252
 Si         5.3979904620        4.1300495791        4.4888891543
 Si         4.3332228148        0.2711500656        0.8521273028
 Si         0.1131743436        3.8826856738       10.1420088547
 Si         7.8621585178       16.1470537251        0.3546184739
 Si         4.9724246891        3.0315512916        1.4333830640
 Si        11.8588881238        6.1880360956        2.2395890950
 Si        14.5291560986       10.8208929362       13.9633557196
 Si         7.8296607540        9.5375528433       -0.0577284266
 Si         4.3529551171        6.8601273110        3.8943359679
 Si        10.1675903046       11.8423548854        8.5528547433
 Si         3.1077675708        2.2236674447        5.5597455815
 Si        -0.4931799339        8.4321463047        8.8272502266
 Si         3.7715232388        4.6105764793       11.5091073159
 Si         3.1785726168        7.4802253542       11.3541952186
 Si        11.3390132292       11.0982768417        1.7110455670
 Si         3.9138429114        0.5611372417        8.1557567381
 Si         2.4307657513        1.4940116391        2.6636621570
 Si         0.2101854379        3.5752636329        5.7936009040
 Si        -0.6894837038       -1.3802447454        7.7523759623
 Si         8.8197896371        7.6685687663       11.3289440126
 Si        11.4715700561       14.2512852743        6.2054213892
 Si         0.3894516700        8.7085265488       11.9079920358
 Si         3.7270205322        9.7503542807       14.9928565132
 Si         7.6714541913       11.8810542542        3.7048613362
 Si         7.4002370081        4.1433357103        6.9731881358
 Si         8.8399425119        0.1354429784       -2.3451201592
 Si         5.4500364550        2.7787101209        9.5520388082
 Si        10.5448405643       10.0663418838        6.2462028537
 Si         6.5230758968        7.6392724178       13.5864930355
 Si        10.8151920629        6.4741956114        9.7987103328
 Si         4.1018069871       13.1821092205        3.7878459450
 Si        10.2384757473        2.5895631341       -1.8399957637
 Si         3.1265974696        9.6570754767       10.3619280994
 Si         1.0707958708        7.3132212299        3.6936009618
 Si         5.8255096229        2.1060055067        6.6907558725
 Si         1.1506936188        0.5703340237        6.9765915538
 Si         0.0395191119       -1.2644749936        2.2283575193
 Si        -0.8524589412        7.7827248895        5.8961104382
 Si         4.2540850319        6.9611837177       13.3754976362
 Si         7.3826598512        2.6469486341       -2.5129640520
 Si         3.4268095685        6.1910776649        7.5391690931
 Si        11.7745734637        6.2382254963       13.0972355304
 Si         0.3568760559        5.4085418642        8.5025397937
 Si         6.5747746740        8.1969811809        2.4679715230
 Si         5.9288273344       11.3332819017        1.5780219069
 Si         1.9395339671        3.2640192237        0.7876808927
 Si         1.0509241125        5.3258328226       -1.4565585555
 Si         7.5197999636        3.6801019786        2.6848216816
  H        -2.6989148983        3.7750928171        6.1567114606
  H        14.0323408495       12.7415133154        4.4383619625
  H         3.0855867092        5.8054855476        1.7828595024
  H         5.9021347641        1.4821472931       -0.6729154050
  H         3.3422371073       -0.7479030121        8.5047545202
  H        10.6007405054       13.1791950793        0.8367342540
  H         2.9595221942        3.3883404045       -1.8532785487
  H         9.2410537288        7.6164186140        0.7219402922
  H         3.5062473113        1.6947685902       10.2755967299
  H        11.0954621709        6.2120866362        6.7035730200
  H        13.4664283049       14.7080669542        5.0710629505
  H         2.3557626745        6.1306267847        9.4967239865
  H         4.0714811535       11.8137112101        5.6373734496
  H         7.4449052863        9.2509981354        8.8872384817
  H         5.9325589514       -1.3921121005       10.3267028909
  H         6.1243634182       10.3283988422        8.6022346136
  H         9.3216407865        7.9904225920        6.6825206797
  H         2.4072606371       -2.0592736490        8.3278283073
  H        13.4069093815       15.2451064972        1.8023527610
  H         8.5108295992        6.2334848573       -0.0484213079
  H        10.6509867714       12.3711912689       12.3108084425
  H        10.6522140821       14.2630166946        7.4914400112
  H         7.9607113321       12.4775427667        9.1085036458
  H         8.1038277659       15.1268478095        7.2203587054
  H         1.8785357641        2.4519603708       -0.5179233256
  H         1.7093251376        9.6792796334        3.2511242204
  H         9.3979586287        4.1829610727        3.3284637765
  H         6.1652990183       13.1670602172        7.3504576000
  H         5.0950813859        0.5723397054        4.4872958288
  H        13.2063328756        0.2473535381        1.8029479419
  H        14.0199248512       11.0373186285        4.3856388566
  H         1.3981489132       -0.5514031149        6.1184891635
  H        11.1405389924       12.5103647786       10.7081539659
  H        -2.7559315539        1.7507908396        3.9504924015
  H        12.6796416098        8.9933004906        3.7078253986
  H        -3.0251894193        2.8384387618        0.5073125571
  H        13.9686001999       10.3829726965        6.3111467975
  H         3.4766821823       14.3280554763       -0.1697975369
  C        13.1924618755       15.0565905387        6.0973210831
  C         6.4776512287        9.5485916506        9.2548460626
  C        10.5996047206        7.8167745193       12.2365013390
  C         0.2570297218       -0.0919013176        8.5175872521
  C        11.2820174288        8.0263552080       10.9507386432
  C         6.8077503672        9.9486992414       10.6191799290
  C         9.4807660649        8.6990245498        0.7966375916
  C        11.7560384331        9.6987423844       13.7570571904
  C        11.5762379251       17.9885822766        3.4537439064
  C        13.1298788443        9.8955819896       13.2596015015
  C        11.3748839270       14.4144256381       11.4969690389
  C        15.4650503203       10.2951803532        8.8603469002
  C         7.3139177482       11.3024080257        0.2359095967
  C         7.7638698875        6.5306421807       -0.8232504434
  C         7.6958656273        4.5184829378       -2.5143215531
  C         6.8140755551        4.1757087043       -0.3991821350
  C         0.1848055798        1.9995635664       10.2097750521
  C        12.1602135965        9.2162476763        7.0901978711
  C         6.8686031292       14.7174573979       12.1894097397
  C         3.0645686887       -2.7845848632        0.2799086215
  C        -0.8606072521        1.1466275856       10.6797675464
  C        12.0829427413       11.7802413156        4.8686150900
  C        13.3815399393       11.9114298750        4.1101810228
  C        10.5506758545       13.0243890436       11.4411950241
  C         0.3142043210        6.2520224087        6.0733464354
  C        11.0265651701       10.8740186055        4.5711989753
  C         2.8584409818        7.6574923453        2.9172782070
  C         5.5224160242        4.3051951526        0.1058910782
  C         5.1171866688       12.1003134296       13.3035397406
  C         2.9760059066        6.9091277335        1.4813782899
  C         7.1987925369       13.3757687150       11.9396601904
  C         0.0482562484        0.7210250104        9.6291173092
  C        10.7285892359        8.8599325690       13.3376775253
  C        12.3196953075        8.8423105760       10.5274442202
  C         7.3465964200        5.1681852573       -1.3329412391
  C        13.3871514171       10.2817217629        7.2844578975
  C         4.4103839541       10.7548167953       11.4511327102
  C         2.7412110718        9.2113782040       16.4489211856
  C        10.2056438719       17.8773964497        4.0427253868
  C         5.9702578697       11.1878600751       11.1533857731
  C         4.0898009030       11.1263162654       12.7658528130
  C        12.1621719881       17.2547587953        4.4779451398
  C         6.4713982960       12.0521137499       12.4585646877
  C         1.3156371458        6.1407462277        5.0655263603
  C        10.8136945289       16.8690068457        5.0544329437
  C         7.6962717704        9.3040604366       11.4376874045
  C        14.3326024080        9.7005496601        8.3485416188
  C         5.8972516536        3.5307098897        7.8294790918
  C        13.5327658678        6.8949012270       12.5542525530
  C         5.3322205234        9.7525098317       15.8076276653
  N         6.7969291636        7.8977247300        5.6728752729
  N         8.1108032724        8.6105590049        3.3744585176
  N         7.3792778736       10.7956769195        5.0899379506
  N         9.2978763587        8.7688456050        6.0531964347
  N         6.7845368838        4.7713162288        5.3811955307
  N         6.0106831741        6.8141222707        3.3956690574
  N        11.0437355134        6.8041873830        5.8298811921
  N         8.5812413698        4.8653844397        7.8886239415
  N         9.1355630420        6.9392117723        9.7564343431
  N         6.2342991947        6.4101059360        9.0405774798
  N         1.3753847935        4.8182690537        0.2363542736
  N         0.2255248163        6.6575501247        2.1899569622
  N         6.1700991923       12.5753441875        2.8721004534
  N         8.3704732617       13.0321350580        4.8950576188
  N         9.4598591871       11.2171636193        7.1391015118
  N         8.9016773664       12.5132275795        9.5227392602
  N         4.0829705329        8.1762216293       10.0656477922
  N         8.9984149519        1.8932970150       -2.7810362340
  N         5.8183185019        3.6635284763        2.8643166011
  N         3.9884585739        5.2029955850        4.3153285602
  N         4.8443391751        2.7371916717        5.4226965841
  N         7.9154595901       15.3001849910        3.3031804264
  N        10.3277590153       15.3126425914        4.9283344050
  N         9.5466635169       16.1596457097       -0.1956984728
  N         0.0964818453        5.0712658915        6.8441648912
  N        10.2021693079       12.3633845483        1.3106938666
  N         4.4555053248        7.9060710010        7.3382841429
  N         1.9504132506        3.4819423191        5.6026866565
  N         2.8185379487        1.0655082320        4.2753218944
  N         2.8046289280        1.3576007056        7.0376481011
  N         1.0030446608        2.2548044070        2.0519936587
  N         5.4148590431        0.5316507218        7.2023423195
  N         4.3061729442        1.4527967847        9.5949528339
  N        10.6515437568        7.1475431652        3.0659160373
  N        10.6546843049       10.3804430875        3.2146574060
  N         3.7184240410       11.6456180837        4.6387296786
  N         4.6142513932        5.2719238130       12.9552278190
  N         2.5721591843        5.8693833062       11.0959168687
  N         7.6110455065       15.4888021565        6.3910101650
  N        -0.9870153499        6.6237740325        8.7944605043
  N         2.0131100773        6.1150849127        8.4888716096
  N         1.9659464791        8.7223981528       11.2583063189
  N         3.3243081634        2.8714947281        1.7663599726
  N         5.5876571088        1.3234185499        1.4312492906
  N         3.3235667832       -0.0575514198        2.1234676577
  N         4.7645373194        4.3053604486       10.0553022995
  N        12.0616917936       12.5210661597        6.1085628708
  N        -0.0557414633        8.4570797848        4.4107837463
